ieee39_full_out.txt
ANDES 2.0.0
Copyright (C) 2015-2026 Hantao Cui

ANDES comes with ABSOLUTELY NO WARRANTY
Case file: C:\Users\_MSI_\AppData\Roaming\Python\Python314\site-packages\andes\cases\ieee39\ieee39_full.xlsx
Report time: 09/07/2026 07:11:35 PM

Power flow converged in 5 iterations.
Flat-start: No

Statistics:
Buses                             39
Generators                        10
Committed Gens                    10
Loads                             19
Shunts                             2
Lines                             46
Transformers      
Areas                              2

EXTENDED SUMMARY:
                              P (pu)            Q (pu)

Generation                    58.935            11.805
Load                          58.564            17.345

BUS DATA:
                            Bus Name            Vm(pu)          Va(rad.)

1                               BUS1            1.0487          -0.19999
2                               BUS2            1.0477          -0.21286
3                              LOAD3            1.0303          -0.27925
4                              LOAD4            1.0528          -0.27175
5                               BUS5            1.0715          -0.24594
6                               BUS6             1.073            -0.235
7                              LOAD7            1.0597          -0.26426
8                              LOAD8             1.057          -0.26966
9                               BUS9             1.053          -0.22416
10                             BUS10            1.0715          -0.20072
11                             BUS11            1.0714          -0.21401
12                            LOAD12            1.0683          -0.23701
13                             BUS13             1.067          -0.21447
14                             BUS14            1.0575          -0.24189
15                            LOAD15            1.0402          -0.25106
16                            LOAD16             1.047          -0.22839
17                             BUS17            1.0432          -0.25293
18                            LOAD18            1.0369          -0.27028
19                             BUS19            1.0645          -0.14639
20                            LOAD20            1.0019          -0.17028
21                            LOAD21            1.0442          -0.18305
22                             BUS22            1.0596          -0.10249
23                            LOAD23            1.0522          -0.10594
24                            LOAD24            1.0512          -0.22513
25                            LOAD25            1.0466           -0.2104
26                            LOAD26            1.0563          -0.23631
27                            LOAD27            1.0447          -0.26392
28                            LOAD28            1.0598          -0.18981
29                            LOAD29            1.0607          -0.14701
30                             GEN30            1.0355          -0.13822
31                             GEN31            1.0132           -0.1176
32                             GEN32            1.0205         -0.058364
33                             GEN33            1.0134         -0.055336
34                             GEN34            1.0191         -0.081083
35                             GEN35              1.06         -0.012714
36                             GEN36              1.06          0.035704
37                             GEN37             1.014          -0.13814
38                             GEN38            1.0528         -0.038191
39                             GEN39              1.03          -0.19129

LINE DATA:
                           Line Name     Fr. Bus (idx)      To Bus (idx)       P From (pu)       Q From (pu)         P To (pu)         Q To (pu)

Line_1                        Line_1                 1                 2           0.34381          -0.38688          -0.34344          -0.37639
Line_2                        Line_2                 1                39          -0.34381           0.38688            0.3445           -1.1799
Line_3                        Line_3                 2                 3            4.8248           0.81211           -4.7962          -0.75708
Line_4                        Line_4                 2                25          -0.12051           0.15574           0.12096          -0.31529
Line_5                        Line_5                 3                 4          -0.44644           -1.1784           0.44807           0.96476
Line_6                        Line_6                 3                18          -0.75738          -0.56455           0.75819           0.34587
Line_7                        Line_7                 4                 5           -2.3599            -1.437            2.3653            1.3714
Line_8                        Line_8                 4                14           -2.5881          -0.25935             2.593           0.18383
Line_9                        Line_9                 5                 6           -4.8528          -0.23114            4.8569           0.23466
Line_10                      Line_10                 5                 8            2.4875            1.1561           -2.4821           -1.2479
Line_11                      Line_11                 6                 7            3.7049            1.2981           -3.6968           -1.3021
Line_12                      Line_12                 6                11           -2.9018            0.4024            2.9071          -0.50046
Line_13                      Line_13                 7                 8            1.3588           0.46208           -1.3581          -0.54083
Line_14                      Line_14                 8                 9           -1.3799          0.022724            1.3839          -0.38246
Line_15                      Line_15                 9                39           -1.3839           0.38246            1.3866           -1.6164
Line_16                      Line_16                10                11            3.5212          -0.31846           -3.5168           0.28148
Line_17                      Line_17                10                13            3.7288           0.75722           -3.7238          -0.78611
Line_18                      Line_18                13                14            3.1324           0.67535           -3.1242          -0.77743
Line_19                      Line_19                14                15            0.5312            0.5936          -0.52972          -0.97843
Line_20                      Line_20                15                16           -2.6703          -0.55157            2.6764            0.4291
Line_21                      Line_21                16                17            3.0297           0.16436           -3.0238          -0.23596
Line_22                      Line_22                16                19            -4.711          -0.52748            4.7436           0.58577
Line_23                      Line_23                16                21           -3.6402           0.37303            3.6501          -0.48515
Line_24                      Line_24                16                24          -0.64488          -0.76201           0.64513           0.69224
Line_25                      Line_25                17                18             2.342           0.54739           -2.3382          -0.64587
Line_26                      Line_26                17                27            0.6818          -0.31144          -0.68122         -0.031382
Line_27                      Line_27                21                22           -6.3901          -0.66485            6.4202           0.90883
Line_28                      Line_28                22                23           0.44979           0.68103          -0.44935          -0.87985
Line_29                      Line_29                23                24            3.7592          -0.18234           -3.7311           0.22976
Line_30                      Line_30                25                26           0.84817          -0.66786          -0.84563           0.12632
Line_31                      Line_31                26                27             2.135           0.52497           -2.1288          -0.72362
Line_32                      Line_32                26                28           -1.0935          -0.38873            1.0982          -0.43381
Line_33                      Line_33                26                29           -1.5859          -0.43256            1.5988          -0.57839
Line_34                      Line_34                28                29           -3.1582           0.15781            3.1707          -0.30245
Line_35                      Line_35                 2                30           -4.3609          -0.59146            4.3609           0.92696
Line_36                      Line_36                31                 6              5.66            2.7121             -5.66           -1.9352
Line_37                      Line_37                10                32             -7.25          -0.43876              7.25            1.4908
Line_38                      Line_38                12                11          -0.60916          -0.20307           0.60975           0.21898
Line_39                      Line_39                12                13          -0.59084          -0.09693           0.59134           0.11076
Line_40                      Line_40                19                20            1.7463           0.10353           -1.7442         -0.061648
Line_41                      Line_41                19                33           -6.4899           -0.6893              6.52            1.3004
Line_42                      Line_42                20                34           -5.0558          -0.96835              5.08            1.4522
Line_43                      Line_43                22                35             -6.87           -1.5899              6.87            2.2553
Line_44                      Line_44                23                36           -5.7849           0.21619               5.8           0.60708
Line_45                      Line_45                25                37           -3.2091           0.51115            3.2152          -0.27617
Line_46                      Line_46                29                38           -7.6045          -0.38817            7.6478            1.2328

OTHER ALGEBRAIC VARIABLES:
                                    

q PV 1                       0.92696
q PV 2                        3.1121
q PV 3                        1.4908
q PV 4                        1.3004
q PV 5                        1.4522
q PV 6                        2.2553
q PV 7                       0.60708
q PV 8                      -0.27617
q PV 9                        1.2328
q Slack 10                  -0.29627
p Slack 10                    5.7311

